* NGSPICE file created from rv_decode.ext - technology: sky130A

.ends

.ends

.ends

.ends

.ends

.ends

.ends

* Black-box entry subcircuit for sky130_fd_sc_hd__mux2_1 abstract view
.subckt sky130_fd_sc_hd__mux2_1 A0 A1 S VGND VNB VPB VPWR X
.ends

* Black-box entry subcircuit for sky130_fd_sc_hd__a22o_1 abstract view
.subckt sky130_fd_sc_hd__a22o_1 A1 A2 B1 B2 VGND VNB VPB VPWR X
.ends

.ends

* Black-box entry subcircuit for sky130_fd_sc_hd__nor2_4 abstract view
.subckt sky130_fd_sc_hd__nor2_4 A B VGND VNB VPB VPWR Y
.ends

* Black-box entry subcircuit for sky130_fd_sc_hd__buf_2 abstract view
.subckt sky130_fd_sc_hd__buf_2 A VGND VNB VPB VPWR X
.ends

* Black-box entry subcircuit for sky130_fd_sc_hd__o211a_2 abstract view
.subckt sky130_fd_sc_hd__o211a_2 A1 A2 B1 C1 VGND VNB VPB VPWR X
.ends

* Black-box entry subcircuit for sky130_fd_sc_hd__dfxtp_4 abstract view
.subckt sky130_fd_sc_hd__dfxtp_4 CLK D VGND VNB VPB VPWR Q
.ends

* Black-box entry subcircuit for sky130_fd_sc_hd__buf_4 abstract view
.subckt sky130_fd_sc_hd__buf_4 A VGND VNB VPB VPWR X
.ends

* Black-box entry subcircuit for sky130_fd_sc_hd__a221o_1 abstract view
.subckt sky130_fd_sc_hd__a221o_1 A1 A2 B1 B2 C1 VGND VNB VPB VPWR X
.ends

* Black-box entry subcircuit for sky130_fd_sc_hd__o221a_4 abstract view
.subckt sky130_fd_sc_hd__o221a_4 A1 A2 B1 B2 C1 VGND VNB VPB VPWR X
.ends

* Black-box entry subcircuit for sky130_fd_sc_hd__o221a_1 abstract view
.subckt sky130_fd_sc_hd__o221a_1 A1 A2 B1 B2 C1 VGND VNB VPB VPWR X
.ends

* Black-box entry subcircuit for sky130_fd_sc_hd__or2_1 abstract view
.subckt sky130_fd_sc_hd__or2_1 A B VGND VNB VPB VPWR X
.ends

* Black-box entry subcircuit for sky130_fd_sc_hd__or3b_1 abstract view
.subckt sky130_fd_sc_hd__or3b_1 A B C_N VGND VNB VPB VPWR X
.ends

* Black-box entry subcircuit for sky130_fd_sc_hd__o211a_1 abstract view
.subckt sky130_fd_sc_hd__o211a_1 A1 A2 B1 C1 VGND VNB VPB VPWR X
.ends

* Black-box entry subcircuit for sky130_fd_sc_hd__a21bo_1 abstract view
.subckt sky130_fd_sc_hd__a21bo_1 A1 A2 B1_N VGND VNB VPB VPWR X
.ends

* Black-box entry subcircuit for sky130_fd_sc_hd__mux2_2 abstract view
.subckt sky130_fd_sc_hd__mux2_2 A0 A1 S VGND VNB VPB VPWR X
.ends

* Black-box entry subcircuit for sky130_fd_sc_hd__and2_4 abstract view
.subckt sky130_fd_sc_hd__and2_4 A B VGND VNB VPB VPWR X
.ends

* Black-box entry subcircuit for sky130_fd_sc_hd__and4b_4 abstract view
.subckt sky130_fd_sc_hd__and4b_4 A_N B C D VGND VNB VPB VPWR X
.ends

* Black-box entry subcircuit for sky130_fd_sc_hd__a32o_1 abstract view
.subckt sky130_fd_sc_hd__a32o_1 A1 A2 A3 B1 B2 VGND VNB VPB VPWR X
.ends

* Black-box entry subcircuit for sky130_fd_sc_hd__a31o_1 abstract view
.subckt sky130_fd_sc_hd__a31o_1 A1 A2 A3 B1 VGND VNB VPB VPWR X
.ends

* Black-box entry subcircuit for sky130_fd_sc_hd__a211o_1 abstract view
.subckt sky130_fd_sc_hd__a211o_1 A1 A2 B1 C1 VGND VNB VPB VPWR X
.ends

* Black-box entry subcircuit for sky130_fd_sc_hd__o211ai_1 abstract view
.subckt sky130_fd_sc_hd__o211ai_1 A1 A2 B1 C1 VGND VNB VPB VPWR Y
.ends

* Black-box entry subcircuit for sky130_fd_sc_hd__nor2_1 abstract view
.subckt sky130_fd_sc_hd__nor2_1 A B VGND VNB VPB VPWR Y
.ends

* Black-box entry subcircuit for sky130_fd_sc_hd__a41o_1 abstract view
.subckt sky130_fd_sc_hd__a41o_1 A1 A2 A3 A4 B1 VGND VNB VPB VPWR X
.ends

* Black-box entry subcircuit for sky130_fd_sc_hd__or4b_2 abstract view
.subckt sky130_fd_sc_hd__or4b_2 A B C D_N VGND VNB VPB VPWR X
.ends

* Black-box entry subcircuit for sky130_fd_sc_hd__o22a_1 abstract view
.subckt sky130_fd_sc_hd__o22a_1 A1 A2 B1 B2 VGND VNB VPB VPWR X
.ends

* Black-box entry subcircuit for sky130_fd_sc_hd__or2_4 abstract view
.subckt sky130_fd_sc_hd__or2_4 A B VGND VNB VPB VPWR X
.ends

* Black-box entry subcircuit for sky130_fd_sc_hd__nand2_4 abstract view
.subckt sky130_fd_sc_hd__nand2_4 A B VGND VNB VPB VPWR Y
.ends

* Black-box entry subcircuit for sky130_fd_sc_hd__dfxtp_2 abstract view
.subckt sky130_fd_sc_hd__dfxtp_2 CLK D VGND VNB VPB VPWR Q
.ends

* Black-box entry subcircuit for sky130_fd_sc_hd__nand2_1 abstract view
.subckt sky130_fd_sc_hd__nand2_1 A B VGND VNB VPB VPWR Y
.ends

* Black-box entry subcircuit for sky130_fd_sc_hd__o2bb2a_1 abstract view
.subckt sky130_fd_sc_hd__o2bb2a_1 A1_N A2_N B1 B2 VGND VNB VPB VPWR X
.ends

* Black-box entry subcircuit for sky130_fd_sc_hd__a2bb2o_1 abstract view
.subckt sky130_fd_sc_hd__a2bb2o_1 A1_N A2_N B1 B2 VGND VNB VPB VPWR X
.ends

* Black-box entry subcircuit for sky130_fd_sc_hd__and3_2 abstract view
.subckt sky130_fd_sc_hd__and3_2 A B C VGND VNB VPB VPWR X
.ends

* Black-box entry subcircuit for sky130_fd_sc_hd__nor2_2 abstract view
.subckt sky130_fd_sc_hd__nor2_2 A B VGND VNB VPB VPWR Y
.ends

* Black-box entry subcircuit for sky130_fd_sc_hd__a21oi_1 abstract view
.subckt sky130_fd_sc_hd__a21oi_1 A1 A2 B1 VGND VNB VPB VPWR Y
.ends

* Black-box entry subcircuit for sky130_fd_sc_hd__or3_1 abstract view
.subckt sky130_fd_sc_hd__or3_1 A B C VGND VNB VPB VPWR X
.ends

* Black-box entry subcircuit for sky130_fd_sc_hd__or4_1 abstract view
.subckt sky130_fd_sc_hd__or4_1 A B C D VGND VNB VPB VPWR X
.ends

* Black-box entry subcircuit for sky130_fd_sc_hd__nor3_4 abstract view
.subckt sky130_fd_sc_hd__nor3_4 A B C VGND VNB VPB VPWR Y
.ends

* Black-box entry subcircuit for sky130_fd_sc_hd__o2111a_1 abstract view
.subckt sky130_fd_sc_hd__o2111a_1 A1 A2 B1 C1 D1 VGND VNB VPB VPWR X
.ends

* Black-box entry subcircuit for sky130_fd_sc_hd__clkbuf_16 abstract view
.subckt sky130_fd_sc_hd__clkbuf_16 A VGND VNB VPB VPWR X
.ends

* Black-box entry subcircuit for sky130_fd_sc_hd__and2_1 abstract view
.subckt sky130_fd_sc_hd__and2_1 A B VGND VNB VPB VPWR X
.ends

* Black-box entry subcircuit for sky130_fd_sc_hd__a31oi_4 abstract view
.subckt sky130_fd_sc_hd__a31oi_4 A1 A2 A3 B1 VGND VNB VPB VPWR Y
.ends

* Black-box entry subcircuit for sky130_fd_sc_hd__and4b_1 abstract view
.subckt sky130_fd_sc_hd__and4b_1 A_N B C D VGND VNB VPB VPWR X
.ends

* Black-box entry subcircuit for sky130_fd_sc_hd__and3_1 abstract view
.subckt sky130_fd_sc_hd__and3_1 A B C VGND VNB VPB VPWR X
.ends

* Black-box entry subcircuit for sky130_fd_sc_hd__a21o_2 abstract view
.subckt sky130_fd_sc_hd__a21o_2 A1 A2 B1 VGND VNB VPB VPWR X
.ends

* Black-box entry subcircuit for sky130_fd_sc_hd__and2b_4 abstract view
.subckt sky130_fd_sc_hd__and2b_4 A_N B VGND VNB VPB VPWR X
.ends

* Black-box entry subcircuit for sky130_fd_sc_hd__and2_2 abstract view
.subckt sky130_fd_sc_hd__and2_2 A B VGND VNB VPB VPWR X
.ends

* Black-box entry subcircuit for sky130_fd_sc_hd__and3b_1 abstract view
.subckt sky130_fd_sc_hd__and3b_1 A_N B C VGND VNB VPB VPWR X
.ends

* Black-box entry subcircuit for sky130_fd_sc_hd__and3b_2 abstract view
.subckt sky130_fd_sc_hd__and3b_2 A_N B C VGND VNB VPB VPWR X
.ends

* Black-box entry subcircuit for sky130_fd_sc_hd__inv_2 abstract view
.subckt sky130_fd_sc_hd__inv_2 A VGND VNB VPB VPWR Y
.ends

* Black-box entry subcircuit for sky130_fd_sc_hd__a21o_1 abstract view
.subckt sky130_fd_sc_hd__a21o_1 A1 A2 B1 VGND VNB VPB VPWR X
.ends

* Black-box entry subcircuit for sky130_fd_sc_hd__buf_6 abstract view
.subckt sky130_fd_sc_hd__buf_6 A VGND VNB VPB VPWR X
.ends

* Black-box entry subcircuit for sky130_fd_sc_hd__o41a_1 abstract view
.subckt sky130_fd_sc_hd__o41a_1 A1 A2 A3 A4 B1 VGND VNB VPB VPWR X
.ends

* Black-box entry subcircuit for sky130_fd_sc_hd__mux2_4 abstract view
.subckt sky130_fd_sc_hd__mux2_4 A0 A1 S VGND VNB VPB VPWR X
.ends

* Black-box entry subcircuit for sky130_fd_sc_hd__a31o_2 abstract view
.subckt sky130_fd_sc_hd__a31o_2 A1 A2 A3 B1 VGND VNB VPB VPWR X
.ends

* Black-box entry subcircuit for sky130_fd_sc_hd__o221a_2 abstract view
.subckt sky130_fd_sc_hd__o221a_2 A1 A2 B1 B2 C1 VGND VNB VPB VPWR X
.ends

* Black-box entry subcircuit for sky130_fd_sc_hd__clkbuf_4 abstract view
.subckt sky130_fd_sc_hd__clkbuf_4 A VGND VNB VPB VPWR X
.ends

* Black-box entry subcircuit for sky130_fd_sc_hd__or4_2 abstract view
.subckt sky130_fd_sc_hd__or4_2 A B C D VGND VNB VPB VPWR X
.ends

* Black-box entry subcircuit for sky130_fd_sc_hd__nand2_2 abstract view
.subckt sky130_fd_sc_hd__nand2_2 A B VGND VNB VPB VPWR Y
.ends

* Black-box entry subcircuit for sky130_fd_sc_hd__o31ai_1 abstract view
.subckt sky130_fd_sc_hd__o31ai_1 A1 A2 A3 B1 VGND VNB VPB VPWR Y
.ends

* Black-box entry subcircuit for sky130_fd_sc_hd__buf_12 abstract view
.subckt sky130_fd_sc_hd__buf_12 A VGND VNB VPB VPWR X
.ends

* Black-box entry subcircuit for sky130_fd_sc_hd__buf_8 abstract view
.subckt sky130_fd_sc_hd__buf_8 A VGND VNB VPB VPWR X
.ends

* Black-box entry subcircuit for sky130_fd_sc_hd__nand2_8 abstract view
.subckt sky130_fd_sc_hd__nand2_8 A B VGND VNB VPB VPWR Y
.ends

* Black-box entry subcircuit for sky130_fd_sc_hd__a311o_1 abstract view
.subckt sky130_fd_sc_hd__a311o_1 A1 A2 A3 B1 C1 VGND VNB VPB VPWR X
.ends

* Black-box entry subcircuit for sky130_fd_sc_hd__and4_2 abstract view
.subckt sky130_fd_sc_hd__and4_2 A B C D VGND VNB VPB VPWR X
.ends

* Black-box entry subcircuit for sky130_fd_sc_hd__o31a_1 abstract view
.subckt sky130_fd_sc_hd__o31a_1 A1 A2 A3 B1 VGND VNB VPB VPWR X
.ends

* Black-box entry subcircuit for sky130_fd_sc_hd__clkbuf_8 abstract view
.subckt sky130_fd_sc_hd__clkbuf_8 A VGND VNB VPB VPWR X
.ends

* Black-box entry subcircuit for sky130_fd_sc_hd__o21ai_1 abstract view
.subckt sky130_fd_sc_hd__o21ai_1 A1 A2 B1 VGND VNB VPB VPWR Y
.ends

* Black-box entry subcircuit for sky130_fd_sc_hd__clkinv_2 abstract view
.subckt sky130_fd_sc_hd__clkinv_2 A VGND VNB VPB VPWR Y
.ends

* Black-box entry subcircuit for sky130_fd_sc_hd__and4bb_4 abstract view
.subckt sky130_fd_sc_hd__and4bb_4 A_N B_N C D VGND VNB VPB VPWR X
.ends

* Black-box entry subcircuit for sky130_fd_sc_hd__nand3_2 abstract view
.subckt sky130_fd_sc_hd__nand3_2 A B C VGND VNB VPB VPWR Y
.ends

* Black-box entry subcircuit for sky130_fd_sc_hd__a211oi_1 abstract view
.subckt sky130_fd_sc_hd__a211oi_1 A1 A2 B1 C1 VGND VNB VPB VPWR Y
.ends

* Black-box entry subcircuit for sky130_fd_sc_hd__and4bb_1 abstract view
.subckt sky130_fd_sc_hd__and4bb_1 A_N B_N C D VGND VNB VPB VPWR X
.ends

* Black-box entry subcircuit for sky130_fd_sc_hd__nand3_4 abstract view
.subckt sky130_fd_sc_hd__nand3_4 A B C VGND VNB VPB VPWR Y
.ends

* Black-box entry subcircuit for sky130_fd_sc_hd__and3_4 abstract view
.subckt sky130_fd_sc_hd__and3_4 A B C VGND VNB VPB VPWR X
.ends

* Black-box entry subcircuit for sky130_fd_sc_hd__or3_2 abstract view
.subckt sky130_fd_sc_hd__or3_2 A B C VGND VNB VPB VPWR X
.ends

* Black-box entry subcircuit for sky130_fd_sc_hd__o21a_1 abstract view
.subckt sky130_fd_sc_hd__o21a_1 A1 A2 B1 VGND VNB VPB VPWR X
.ends

* Black-box entry subcircuit for sky130_fd_sc_hd__a21o_4 abstract view
.subckt sky130_fd_sc_hd__a21o_4 A1 A2 B1 VGND VNB VPB VPWR X
.ends

* Black-box entry subcircuit for sky130_fd_sc_hd__clkinv_4 abstract view
.subckt sky130_fd_sc_hd__clkinv_4 A VGND VNB VPB VPWR Y
.ends

* Black-box entry subcircuit for sky130_fd_sc_hd__nand4b_1 abstract view
.subckt sky130_fd_sc_hd__nand4b_1 A_N B C D VGND VNB VPB VPWR Y
.ends

* Black-box entry subcircuit for sky130_fd_sc_hd__nor4b_4 abstract view
.subckt sky130_fd_sc_hd__nor4b_4 A B C D_N VGND VNB VPB VPWR Y
.ends

* Black-box entry subcircuit for sky130_fd_sc_hd__dfxtp_1 abstract view
.subckt sky130_fd_sc_hd__dfxtp_1 CLK D VGND VNB VPB VPWR Q
.ends

* Black-box entry subcircuit for sky130_fd_sc_hd__nand3b_4 abstract view
.subckt sky130_fd_sc_hd__nand3b_4 A_N B C VGND VNB VPB VPWR Y
.ends

* Black-box entry subcircuit for sky130_fd_sc_hd__nor2_8 abstract view
.subckt sky130_fd_sc_hd__nor2_8 A B VGND VNB VPB VPWR Y
.ends

* Black-box entry subcircuit for sky130_fd_sc_hd__and2b_1 abstract view
.subckt sky130_fd_sc_hd__and2b_1 A_N B VGND VNB VPB VPWR X
.ends

* Black-box entry subcircuit for sky130_fd_sc_hd__or4b_4 abstract view
.subckt sky130_fd_sc_hd__or4b_4 A B C D_N VGND VNB VPB VPWR X
.ends

* Black-box entry subcircuit for sky130_fd_sc_hd__a21oi_4 abstract view
.subckt sky130_fd_sc_hd__a21oi_4 A1 A2 B1 VGND VNB VPB VPWR Y
.ends

* Black-box entry subcircuit for sky130_fd_sc_hd__o21ai_4 abstract view
.subckt sky130_fd_sc_hd__o21ai_4 A1 A2 B1 VGND VNB VPB VPWR Y
.ends

* Black-box entry subcircuit for sky130_fd_sc_hd__o311a_1 abstract view
.subckt sky130_fd_sc_hd__o311a_1 A1 A2 A3 B1 C1 VGND VNB VPB VPWR X
.ends

* Black-box entry subcircuit for sky130_fd_sc_hd__o21ba_1 abstract view
.subckt sky130_fd_sc_hd__o21ba_1 A1 A2 B1_N VGND VNB VPB VPWR X
.ends

* Black-box entry subcircuit for sky130_fd_sc_hd__and4_1 abstract view
.subckt sky130_fd_sc_hd__and4_1 A B C D VGND VNB VPB VPWR X
.ends

* Black-box entry subcircuit for sky130_fd_sc_hd__o21bai_4 abstract view
.subckt sky130_fd_sc_hd__o21bai_4 A1 A2 B1_N VGND VNB VPB VPWR Y
.ends

* Black-box entry subcircuit for sky130_fd_sc_hd__o21bai_1 abstract view
.subckt sky130_fd_sc_hd__o21bai_1 A1 A2 B1_N VGND VNB VPB VPWR Y
.ends

* Black-box entry subcircuit for sky130_fd_sc_hd__o31a_4 abstract view
.subckt sky130_fd_sc_hd__o31a_4 A1 A2 A3 B1 VGND VNB VPB VPWR X
.ends

* Black-box entry subcircuit for sky130_fd_sc_hd__nand4_1 abstract view
.subckt sky130_fd_sc_hd__nand4_1 A B C D VGND VNB VPB VPWR Y
.ends

* Black-box entry subcircuit for sky130_fd_sc_hd__a221o_2 abstract view
.subckt sky130_fd_sc_hd__a221o_2 A1 A2 B1 B2 C1 VGND VNB VPB VPWR X
.ends

* Black-box entry subcircuit for sky130_fd_sc_hd__o31ai_4 abstract view
.subckt sky130_fd_sc_hd__o31ai_4 A1 A2 A3 B1 VGND VNB VPB VPWR Y
.ends

* Black-box entry subcircuit for sky130_fd_sc_hd__o2bb2a_2 abstract view
.subckt sky130_fd_sc_hd__o2bb2a_2 A1_N A2_N B1 B2 VGND VNB VPB VPWR X
.ends

* Black-box entry subcircuit for sky130_fd_sc_hd__and2b_2 abstract view
.subckt sky130_fd_sc_hd__and2b_2 A_N B VGND VNB VPB VPWR X
.ends

* Black-box entry subcircuit for sky130_fd_sc_hd__o21a_2 abstract view
.subckt sky130_fd_sc_hd__o21a_2 A1 A2 B1 VGND VNB VPB VPWR X
.ends

* Black-box entry subcircuit for sky130_fd_sc_hd__o211a_4 abstract view
.subckt sky130_fd_sc_hd__o211a_4 A1 A2 B1 C1 VGND VNB VPB VPWR X
.ends

.subckt rv_decode i_clk i_flush i_instruction[0] i_instruction[10] i_instruction[11]
+ i_instruction[12] i_instruction[13] i_instruction[14] i_instruction[15] i_instruction[16]
+ i_instruction[17] i_instruction[18] i_instruction[19] i_instruction[1] i_instruction[20]
+ i_instruction[21] i_instruction[22] i_instruction[23] i_instruction[24] i_instruction[25]
+ i_instruction[26] i_instruction[27] i_instruction[28] i_instruction[29] i_instruction[2]
+ i_instruction[30] i_instruction[31] i_instruction[3] i_instruction[4] i_instruction[5]
+ i_instruction[6] i_instruction[7] i_instruction[8] i_instruction[9] i_pc[10] i_pc[11]
+ i_pc[12] i_pc[13] i_pc[14] i_pc[15] i_pc[1] i_pc[2] i_pc[3] i_pc[4] i_pc[5] i_pc[6]
+ i_pc[7] i_pc[8] i_pc[9] i_pc_next[10] i_pc_next[11] i_pc_next[12] i_pc_next[13]
+ i_pc_next[14] i_pc_next[15] i_pc_next[1] i_pc_next[2] i_pc_next[3] i_pc_next[4]
+ i_pc_next[5] i_pc_next[6] i_pc_next[7] i_pc_next[8] i_pc_next[9] i_ready i_stall
+ o_alu_ctrl[0] o_alu_ctrl[1] o_alu_ctrl[2] o_alu_ctrl[3] o_alu_ctrl[4] o_csr_clear
+ o_csr_ebreak o_csr_idx[0] o_csr_idx[10] o_csr_idx[11] o_csr_idx[1] o_csr_idx[2]
+ o_csr_idx[3] o_csr_idx[4] o_csr_idx[5] o_csr_idx[6] o_csr_idx[7] o_csr_idx[8] o_csr_idx[9]
+ o_csr_imm[0] o_csr_imm[1] o_csr_imm[2] o_csr_imm[3] o_csr_imm[4] o_csr_imm_sel o_csr_read
+ o_csr_set o_csr_write o_funct3[0] o_funct3[1] o_funct3[2] o_imm_i[0] o_imm_i[10]
+ o_imm_i[11] o_imm_i[12] o_imm_i[13] o_imm_i[14] o_imm_i[15] o_imm_i[16] o_imm_i[17]
+ o_imm_i[18] o_imm_i[19] o_imm_i[1] o_imm_i[20] o_imm_i[21] o_imm_i[22] o_imm_i[23]
+ o_imm_i[24] o_imm_i[25] o_imm_i[26] o_imm_i[27] o_imm_i[28] o_imm_i[29] o_imm_i[2]
+ o_imm_i[30] o_imm_i[31] o_imm_i[3] o_imm_i[4] o_imm_i[5] o_imm_i[6] o_imm_i[7] o_imm_i[8]
+ o_imm_i[9] o_inst_branch o_inst_jal o_inst_jalr o_inst_mret o_inst_store o_inst_supported
+ o_op1_src o_op2_src o_pc[10] o_pc[11] o_pc[12] o_pc[13] o_pc[14] o_pc[15] o_pc[1]
+ o_pc[2] o_pc[3] o_pc[4] o_pc[5] o_pc[6] o_pc[7] o_pc[8] o_pc[9] o_pc_next[10] o_pc_next[11]
+ o_pc_next[12] o_pc_next[13] o_pc_next[14] o_pc_next[15] o_pc_next[1] o_pc_next[2]
+ o_pc_next[3] o_pc_next[4] o_pc_next[5] o_pc_next[6] o_pc_next[7] o_pc_next[8] o_pc_next[9]
+ o_rd[0] o_rd[1] o_rd[2] o_rd[3] o_rd[4] o_reg_write o_res_src[0] o_res_src[1] o_res_src[2]
+ o_rs1[0] o_rs1[1] o_rs1[2] o_rs1[3] o_rs1[4] o_rs2[0] o_rs2[1] o_rs2[2] o_rs2[3]
+ o_rs2[4] vccd1 vssd1
X_501_ o_pc_next[6] i_pc_next[6] net21 vssd1 vssd1 vccd1 vccd1 _005_ sky130_fd_sc_hd__mux2_1
X_432_ o_rd[0] o_inst_store _092_ o_csr_idx[0] vssd1 vssd1 vccd1 vccd1 _093_ sky130_fd_sc_hd__a22o_1
X_415_ o_res_src[1] o_res_src[2] vssd1 vssd1 vccd1 vccd1 o_res_src[0] sky130_fd_sc_hd__nor2_4
X_895_ o_csr_imm_sel vssd1 vssd1 vccd1 vccd1 o_funct3[2] sky130_fd_sc_hd__buf_2
X_680_ net28 o_csr_imm[0] net25 _267_ vssd1 vssd1 vccd1 vccd1 _031_ sky130_fd_sc_hd__o211a_2
X_878_ clknet_3_7__leaf_i_clk _047_ vssd1 vssd1 vccd1 vccd1 o_csr_idx[11] sky130_fd_sc_hd__dfxtp_4
Xfanout7 _159_ vssd1 vssd1 vccd1 vccd1 net7 sky130_fd_sc_hd__buf_4
X_801_ _373_ _374_ _375_ net12 net30 vssd1 vssd1 vccd1 vccd1 _376_ sky130_fd_sc_hd__a221o_1
X_732_ net28 o_csr_idx[1] _311_ _313_ net25 vssd1 vssd1 vccd1 vccd1 _037_ sky130_fd_sc_hd__o221a_4
X_663_ net26 o_funct3[1] _249_ _252_ net23 vssd1 vssd1 vccd1 vccd1 _029_ sky130_fd_sc_hd__o221a_1
X_594_ net43 _165_ vssd1 vssd1 vccd1 vccd1 _192_ sky130_fd_sc_hd__or2_1
X_715_ _128_ _130_ _154_ vssd1 vssd1 vccd1 vccd1 _298_ sky130_fd_sc_hd__or3b_1
X_646_ net26 o_rd[4] net23 _237_ vssd1 vssd1 vccd1 vccd1 _027_ sky130_fd_sc_hd__o211a_1
X_577_ i_instruction[3] _173_ _171_ vssd1 vssd1 vccd1 vccd1 _177_ sky130_fd_sc_hd__a21bo_1
X_500_ o_pc_next[5] i_pc_next[5] net22 vssd1 vssd1 vccd1 vccd1 _004_ sky130_fd_sc_hd__mux2_2
X_431_ _090_ _091_ vssd1 vssd1 vccd1 vccd1 _092_ sky130_fd_sc_hd__and2_4
X_629_ net27 o_rd[1] vssd1 vssd1 vccd1 vccd1 _224_ sky130_fd_sc_hd__or2_1
X_414_ instruction\[5\] instruction\[1\] instruction\[0\] _083_ vssd1 vssd1 vccd1
+ vccd1 o_res_src[2] sky130_fd_sc_hd__and4b_4
X_894_ o_alu_ctrl[3] vssd1 vssd1 vccd1 vccd1 o_csr_idx[10] sky130_fd_sc_hd__buf_2
X_877_ clknet_3_4__leaf_i_clk _046_ vssd1 vssd1 vccd1 vccd1 o_alu_ctrl[3] sky130_fd_sc_hd__dfxtp_4
Xfanout8 _144_ vssd1 vssd1 vccd1 vccd1 net8 sky130_fd_sc_hd__buf_4
X_800_ net34 i_instruction[9] _120_ net8 i_instruction[28] vssd1 vssd1 vccd1 vccd1
+ _375_ sky130_fd_sc_hd__a32o_1
X_731_ net18 net12 _312_ net30 vssd1 vssd1 vccd1 vccd1 _313_ sky130_fd_sc_hd__a31o_1
X_662_ _188_ _250_ _251_ net29 vssd1 vssd1 vccd1 vccd1 _252_ sky130_fd_sc_hd__a211o_1
X_593_ _166_ _190_ _189_ _168_ vssd1 vssd1 vccd1 vccd1 _191_ sky130_fd_sc_hd__o211ai_1
X_714_ net8 _150_ vssd1 vssd1 vccd1 vccd1 _297_ sky130_fd_sc_hd__nor2_1
X_645_ _123_ _158_ _235_ _236_ net30 vssd1 vssd1 vccd1 vccd1 _237_ sky130_fd_sc_hd__a41o_1
X_576_ i_flush _176_ vssd1 vssd1 vccd1 vccd1 _018_ sky130_fd_sc_hd__nor2_1
X_430_ instruction\[3\] _084_ instruction\[2\] _077_ vssd1 vssd1 vccd1 vccd1 _091_
+ sky130_fd_sc_hd__or4b_2
X_628_ _216_ _217_ _222_ net13 vssd1 vssd1 vccd1 vccd1 _223_ sky130_fd_sc_hd__o22a_1
X_559_ i_instruction[1] _136_ vssd1 vssd1 vccd1 vccd1 _160_ sky130_fd_sc_hd__or2_4
X_413_ instruction\[1\] instruction\[0\] vssd1 vssd1 vccd1 vccd1 _084_ sky130_fd_sc_hd__nand2_4
X_893_ clknet_3_3__leaf_i_clk _062_ vssd1 vssd1 vccd1 vccd1 o_pc[15] sky130_fd_sc_hd__dfxtp_2
X_876_ clknet_3_4__leaf_i_clk _045_ vssd1 vssd1 vccd1 vccd1 o_csr_idx[9] sky130_fd_sc_hd__dfxtp_4
Xfanout9 _144_ vssd1 vssd1 vccd1 vccd1 net9 sky130_fd_sc_hd__buf_2
X_730_ i_instruction[21] _152_ _145_ vssd1 vssd1 vccd1 vccd1 _312_ sky130_fd_sc_hd__mux2_1
X_661_ net43 _135_ _137_ _183_ vssd1 vssd1 vccd1 vccd1 _251_ sky130_fd_sc_hd__a31o_1
X_592_ i_instruction[10] _123_ vssd1 vssd1 vccd1 vccd1 _190_ sky130_fd_sc_hd__nand2_1
X_859_ clknet_3_5__leaf_i_clk _028_ vssd1 vssd1 vccd1 vccd1 o_funct3[0] sky130_fd_sc_hd__dfxtp_4
X_713_ i_flush _296_ vssd1 vssd1 vccd1 vccd1 _035_ sky130_fd_sc_hd__nor2_1
X_644_ _075_ net12 vssd1 vssd1 vccd1 vccd1 _236_ sky130_fd_sc_hd__nand2_1
X_575_ net31 instruction\[2\] _174_ _175_ vssd1 vssd1 vccd1 vccd1 _176_ sky130_fd_sc_hd__o2bb2a_1
X_627_ _157_ _221_ _220_ _138_ vssd1 vssd1 vccd1 vccd1 _222_ sky130_fd_sc_hd__a2bb2o_1
X_558_ i_instruction[1] _136_ vssd1 vssd1 vccd1 vccd1 _159_ sky130_fd_sc_hd__nor2_4
X_489_ _067_ instruction\[2\] instruction\[3\] instruction\[6\] vssd1 vssd1 vccd1
+ vccd1 _109_ sky130_fd_sc_hd__a211o_1
X_412_ _066_ _067_ _068_ vssd1 vssd1 vccd1 vccd1 _083_ sky130_fd_sc_hd__and3_2
X_892_ clknet_3_2__leaf_i_clk _061_ vssd1 vssd1 vccd1 vccd1 o_pc[14] sky130_fd_sc_hd__dfxtp_2
X_875_ clknet_3_4__leaf_i_clk _044_ vssd1 vssd1 vccd1 vccd1 o_csr_idx[8] sky130_fd_sc_hd__dfxtp_4
X_660_ _120_ net10 vssd1 vssd1 vccd1 vccd1 _250_ sky130_fd_sc_hd__nor2_2
X_591_ _166_ _187_ vssd1 vssd1 vccd1 vccd1 _189_ sky130_fd_sc_hd__or2_1
X_858_ clknet_3_5__leaf_i_clk _027_ vssd1 vssd1 vccd1 vccd1 o_rd[4] sky130_fd_sc_hd__dfxtp_2
X_789_ _243_ _364_ i_instruction[27] _172_ vssd1 vssd1 vccd1 vccd1 _365_ sky130_fd_sc_hd__a2bb2o_1
X_712_ net29 o_csr_imm[4] _295_ vssd1 vssd1 vccd1 vccd1 _296_ sky130_fd_sc_hd__a21oi_1
X_643_ net19 net5 _193_ vssd1 vssd1 vccd1 vccd1 _235_ sky130_fd_sc_hd__or3_1
X_574_ net6 _168_ _170_ _146_ vssd1 vssd1 vccd1 vccd1 _175_ sky130_fd_sc_hd__a31o_1
X_626_ _145_ _156_ _159_ _127_ vssd1 vssd1 vccd1 vccd1 _221_ sky130_fd_sc_hd__a211o_1
X_557_ _118_ _157_ vssd1 vssd1 vccd1 vccd1 _158_ sky130_fd_sc_hd__nand2_4
X_488_ o_csr_imm_sel o_funct3[1] instruction\[6\] instruction\[5\] vssd1 vssd1 vccd1
+ vccd1 _108_ sky130_fd_sc_hd__or4_1
X_411_ o_inst_branch _081_ _082_ vssd1 vssd1 vccd1 vccd1 o_op2_src sky130_fd_sc_hd__nor3_4
X_609_ i_instruction[7] _129_ _204_ vssd1 vssd1 vccd1 vccd1 _205_ sky130_fd_sc_hd__mux2_1
X_891_ clknet_3_5__leaf_i_clk _060_ vssd1 vssd1 vccd1 vccd1 o_pc[13] sky130_fd_sc_hd__dfxtp_2
X_874_ clknet_3_6__leaf_i_clk _043_ vssd1 vssd1 vccd1 vccd1 o_csr_idx[7] sky130_fd_sc_hd__dfxtp_4
X_590_ net43 _145_ vssd1 vssd1 vccd1 vccd1 _188_ sky130_fd_sc_hd__or2_4
X_857_ clknet_3_7__leaf_i_clk _026_ vssd1 vssd1 vccd1 vccd1 o_rd[3] sky130_fd_sc_hd__dfxtp_2
X_788_ i_instruction[3] _164_ _363_ vssd1 vssd1 vccd1 vccd1 _364_ sky130_fd_sc_hd__a21oi_1
X_711_ net5 _294_ _292_ _147_ vssd1 vssd1 vccd1 vccd1 _295_ sky130_fd_sc_hd__o211a_2
X_642_ net26 o_rd[3] net23 _233_ _234_ vssd1 vssd1 vccd1 vccd1 _026_ sky130_fd_sc_hd__o2111a_1
X_573_ _150_ net14 _158_ _161_ net5 vssd1 vssd1 vccd1 vccd1 _174_ sky130_fd_sc_hd__o221a_1
Xclkbuf_0_i_clk i_clk vssd1 vssd1 vccd1 vccd1 clknet_0_i_clk sky130_fd_sc_hd__clkbuf_16
X_625_ _121_ _218_ _219_ _126_ _193_ vssd1 vssd1 vccd1 vccd1 _220_ sky130_fd_sc_hd__a32o_1
X_556_ _154_ _156_ vssd1 vssd1 vccd1 vccd1 _157_ sky130_fd_sc_hd__and2_1
X_487_ instruction\[5\] _067_ _076_ _084_ vssd1 vssd1 vccd1 vccd1 o_reg_write sky130_fd_sc_hd__a31oi_4
X_410_ instruction\[5\] instruction\[4\] _076_ instruction\[6\] vssd1 vssd1 vccd1
+ vccd1 _082_ sky130_fd_sc_hd__and4b_1
X_608_ _164_ _187_ vssd1 vssd1 vccd1 vccd1 _204_ sky130_fd_sc_hd__nor2_1
X_539_ _116_ _141_ i_flush vssd1 vssd1 vccd1 vccd1 _016_ sky130_fd_sc_hd__a21oi_1
X_890_ clknet_3_2__leaf_i_clk _059_ vssd1 vssd1 vccd1 vccd1 o_pc[12] sky130_fd_sc_hd__dfxtp_2
X_873_ clknet_3_7__leaf_i_clk _042_ vssd1 vssd1 vccd1 vccd1 o_csr_idx[6] sky130_fd_sc_hd__dfxtp_2
X_856_ clknet_3_3__leaf_i_clk _025_ vssd1 vssd1 vccd1 vccd1 o_rd[2] sky130_fd_sc_hd__dfxtp_2
X_787_ _126_ _145_ _165_ vssd1 vssd1 vccd1 vccd1 _363_ sky130_fd_sc_hd__and3_1
X_710_ _123_ _195_ _257_ _293_ vssd1 vssd1 vccd1 vccd1 _294_ sky130_fd_sc_hd__a211o_1
X_641_ net31 _122_ net10 _225_ vssd1 vssd1 vccd1 vccd1 _234_ sky130_fd_sc_hd__or4_1
X_572_ net5 _172_ vssd1 vssd1 vccd1 vccd1 _173_ sky130_fd_sc_hd__and2_4
X_839_ clknet_3_7__leaf_i_clk _008_ vssd1 vssd1 vccd1 vccd1 o_pc_next[9] sky130_fd_sc_hd__dfxtp_2
X_624_ _152_ i_instruction[8] _189_ vssd1 vssd1 vccd1 vccd1 _219_ sky130_fd_sc_hd__mux2_1
X_555_ net40 net14 vssd1 vssd1 vccd1 vccd1 _156_ sky130_fd_sc_hd__and2_1
X_486_ o_funct3[1] o_funct3[0] _085_ vssd1 vssd1 vccd1 vccd1 o_csr_clear sky130_fd_sc_hd__and3_2
X_607_ _201_ _203_ i_flush vssd1 vssd1 vccd1 vccd1 _022_ sky130_fd_sc_hd__a21oi_1
X_538_ _118_ _134_ net13 net31 vssd1 vssd1 vccd1 vccd1 _141_ sky130_fd_sc_hd__a31o_1
X_469_ o_csr_idx[7] net4 net1 vssd1 vssd1 vccd1 vccd1 o_imm_i[27] sky130_fd_sc_hd__a21o_2
Xclkbuf_3_2__f_i_clk clknet_0_i_clk vssd1 vssd1 vccd1 vccd1 clknet_3_2__leaf_i_clk
+ sky130_fd_sc_hd__clkbuf_16
X_872_ clknet_3_5__leaf_i_clk _041_ vssd1 vssd1 vccd1 vccd1 o_csr_idx[5] sky130_fd_sc_hd__dfxtp_4
X_855_ clknet_3_0__leaf_i_clk _024_ vssd1 vssd1 vccd1 vccd1 o_rd[1] sky130_fd_sc_hd__dfxtp_2
X_786_ _194_ _360_ _361_ _338_ vssd1 vssd1 vccd1 vccd1 _362_ sky130_fd_sc_hd__a31o_1
X_640_ _158_ _171_ _232_ _143_ vssd1 vssd1 vccd1 vccd1 _233_ sky130_fd_sc_hd__a31o_1
X_571_ net15 net35 vssd1 vssd1 vccd1 vccd1 _172_ sky130_fd_sc_hd__and2b_4
X_838_ clknet_3_4__leaf_i_clk _007_ vssd1 vssd1 vccd1 vccd1 o_pc_next[8] sky130_fd_sc_hd__dfxtp_2
X_769_ net26 o_csr_idx[5] _344_ _346_ net23 vssd1 vssd1 vccd1 vccd1 _041_ sky130_fd_sc_hd__o221a_1
X_623_ _170_ _192_ vssd1 vssd1 vccd1 vccd1 _218_ sky130_fd_sc_hd__and2_2
X_554_ i_instruction[0] i_instruction[1] net35 vssd1 vssd1 vccd1 vccd1 _155_ sky130_fd_sc_hd__and3b_1
X_485_ o_funct3[0] _085_ o_funct3[1] vssd1 vssd1 vccd1 vccd1 o_csr_set sky130_fd_sc_hd__and3b_2
X_606_ _158_ _182_ _202_ _146_ vssd1 vssd1 vccd1 vccd1 _203_ sky130_fd_sc_hd__a31o_1
X_537_ _136_ _138_ vssd1 vssd1 vccd1 vccd1 _140_ sky130_fd_sc_hd__nand2_1
X_468_ o_csr_idx[6] net4 net1 vssd1 vssd1 vccd1 vccd1 o_imm_i[26] sky130_fd_sc_hd__a21o_2
X_399_ net40 vssd1 vssd1 vccd1 vccd1 _075_ sky130_fd_sc_hd__inv_2
X_871_ clknet_3_6__leaf_i_clk _040_ vssd1 vssd1 vccd1 vccd1 o_csr_idx[4] sky130_fd_sc_hd__dfxtp_4
X_854_ clknet_3_2__leaf_i_clk _023_ vssd1 vssd1 vccd1 vccd1 o_rd[0] sky130_fd_sc_hd__dfxtp_4
X_785_ _131_ _188_ _340_ _166_ vssd1 vssd1 vccd1 vccd1 _361_ sky130_fd_sc_hd__a211o_1
X_570_ net6 _169_ vssd1 vssd1 vccd1 vccd1 _171_ sky130_fd_sc_hd__nand2_1
X_837_ clknet_3_0__leaf_i_clk _006_ vssd1 vssd1 vccd1 vccd1 o_pc_next[7] sky130_fd_sc_hd__dfxtp_2
X_768_ net12 _345_ net29 vssd1 vssd1 vccd1 vccd1 _346_ sky130_fd_sc_hd__a21o_1
X_699_ _121_ net13 _284_ net31 vssd1 vssd1 vccd1 vccd1 _285_ sky130_fd_sc_hd__a31o_1
X_622_ i_instruction[8] net8 _164_ i_instruction[3] net11 vssd1 vssd1 vccd1 vccd1
+ _217_ sky130_fd_sc_hd__a221o_1
X_553_ _148_ _153_ vssd1 vssd1 vccd1 vccd1 _154_ sky130_fd_sc_hd__nor2_2
X_484_ o_funct3[1] o_funct3[0] _085_ vssd1 vssd1 vccd1 vccd1 o_csr_write sky130_fd_sc_hd__and3b_2
X_605_ i_instruction[6] _173_ vssd1 vssd1 vccd1 vccd1 _202_ sky130_fd_sc_hd__nand2_1
X_536_ _135_ net16 vssd1 vssd1 vccd1 vccd1 _139_ sky130_fd_sc_hd__nor2_2
X_467_ o_csr_idx[5] net4 net1 vssd1 vssd1 vccd1 vccd1 o_imm_i[25] sky130_fd_sc_hd__a21o_2
X_398_ i_instruction[11] vssd1 vssd1 vccd1 vccd1 _074_ sky130_fd_sc_hd__inv_2
Xfanout40 i_instruction[15] vssd1 vssd1 vccd1 vccd1 net40 sky130_fd_sc_hd__buf_6
X_519_ net35 i_instruction[10] vssd1 vssd1 vccd1 vccd1 _122_ sky130_fd_sc_hd__and2_2
X_870_ clknet_3_5__leaf_i_clk _039_ vssd1 vssd1 vccd1 vccd1 o_csr_idx[3] sky130_fd_sc_hd__dfxtp_4
X_853_ clknet_3_7__leaf_i_clk _022_ vssd1 vssd1 vccd1 vccd1 instruction\[6\] sky130_fd_sc_hd__dfxtp_4
X_784_ i_instruction[3] _163_ _281_ vssd1 vssd1 vccd1 vccd1 _360_ sky130_fd_sc_hd__a21o_1
X_836_ clknet_3_1__leaf_i_clk _005_ vssd1 vssd1 vccd1 vccd1 o_pc_next[6] sky130_fd_sc_hd__dfxtp_2
X_767_ i_instruction[25] net17 _145_ vssd1 vssd1 vccd1 vccd1 _345_ sky130_fd_sc_hd__mux2_1
X_698_ i_instruction[17] i_instruction[9] _145_ vssd1 vssd1 vccd1 vccd1 _284_ sky130_fd_sc_hd__mux2_1
X_621_ _134_ _151_ vssd1 vssd1 vccd1 vccd1 _216_ sky130_fd_sc_hd__nor2_1
X_552_ i_instruction[5] i_instruction[6] i_instruction[2] i_instruction[3] net36 vssd1
+ vssd1 vccd1 vccd1 _153_ sky130_fd_sc_hd__o41a_1
X_483_ o_csr_idx[5] o_csr_imm_sel _081_ vssd1 vssd1 vccd1 vccd1 o_alu_ctrl[0] sky130_fd_sc_hd__and3_2
X_819_ o_pc[4] i_pc[4] _114_ vssd1 vssd1 vccd1 vccd1 _051_ sky130_fd_sc_hd__mux2_4
X_604_ net31 instruction\[6\] vssd1 vssd1 vccd1 vccd1 _201_ sky130_fd_sc_hd__nand2_1
X_535_ net33 i_instruction[1] vssd1 vssd1 vccd1 vccd1 _138_ sky130_fd_sc_hd__nand2_4
X_466_ o_csr_idx[4] net4 net1 vssd1 vssd1 vccd1 vccd1 o_imm_i[24] sky130_fd_sc_hd__a21o_2
X_397_ i_instruction[10] vssd1 vssd1 vccd1 vccd1 _073_ sky130_fd_sc_hd__inv_2
Xfanout30 i_stall vssd1 vssd1 vccd1 vccd1 net30 sky130_fd_sc_hd__buf_4
Xfanout41 i_instruction[14] vssd1 vssd1 vccd1 vccd1 net41 sky130_fd_sc_hd__buf_6
X_518_ net19 _119_ vssd1 vssd1 vccd1 vccd1 _121_ sky130_fd_sc_hd__or2_4
X_449_ o_rd[0] o_csr_idx[11] _091_ vssd1 vssd1 vccd1 vccd1 _099_ sky130_fd_sc_hd__mux2_1
X_852_ clknet_3_6__leaf_i_clk _021_ vssd1 vssd1 vccd1 vccd1 instruction\[5\] sky130_fd_sc_hd__dfxtp_4
X_783_ net32 _358_ _359_ net25 vssd1 vssd1 vccd1 vccd1 _042_ sky130_fd_sc_hd__o211a_1
X_835_ clknet_3_5__leaf_i_clk _004_ vssd1 vssd1 vccd1 vccd1 o_pc_next[5] sky130_fd_sc_hd__dfxtp_2
X_766_ _338_ _342_ _343_ net11 vssd1 vssd1 vccd1 vccd1 _344_ sky130_fd_sc_hd__o211a_1
X_697_ net5 _282_ _278_ net10 vssd1 vssd1 vccd1 vccd1 _283_ sky130_fd_sc_hd__o211a_1
X_620_ net28 o_rd[0] net25 _215_ vssd1 vssd1 vccd1 vccd1 _023_ sky130_fd_sc_hd__o211a_2
X_551_ _151_ vssd1 vssd1 vccd1 vccd1 _152_ sky130_fd_sc_hd__inv_2
Xclkbuf_3_5__f_i_clk clknet_0_i_clk vssd1 vssd1 vccd1 vccd1 clknet_3_5__leaf_i_clk
+ sky130_fd_sc_hd__clkbuf_16
X_482_ _065_ o_funct3[1] _106_ _107_ vssd1 vssd1 vccd1 vccd1 o_alu_ctrl[2] sky130_fd_sc_hd__a31o_2
X_818_ o_pc[3] i_pc[3] net22 vssd1 vssd1 vccd1 vccd1 _050_ sky130_fd_sc_hd__mux2_2
X_749_ net28 o_csr_idx[3] _323_ _328_ net25 vssd1 vssd1 vccd1 vccd1 _039_ sky130_fd_sc_hd__o221a_2
X_603_ net27 instruction\[5\] net24 _200_ vssd1 vssd1 vccd1 vccd1 _021_ sky130_fd_sc_hd__o211a_1
X_534_ net33 i_instruction[1] vssd1 vssd1 vccd1 vccd1 _137_ sky130_fd_sc_hd__and2_2